Test_Network/condensed/network_18/Feeder_2/Lines.txt
New Line.LINE93 Bus1=92 Bus2=94 phases=3 Linecode=4c_.2 Length=1.2181 Units=m
New Line.LINE185 Bus1=182 Bus2=186 phases=3 Linecode=4c_.1 Length=2.6494 Units=m
New Line.LINE195 Bus1=189 Bus2=196 phases=3 Linecode=2c_.0225 Length=0.88352 Units=m
New Line.LINE339 Bus1=332 Bus2=340 phases=3 Linecode=4c_.1 Length=0.84246 Units=m
New Line.LINE408 Bus1=398 Bus2=409 phases=3 Linecode=4c_.1 Length=0.96883 Units=m
New Line.LINE561 Bus1=550 Bus2=562 phases=3 Linecode=4c_.1 Length=0.24965 Units=m
New Line.LINE605 Bus1=590 Bus2=606 phases=3 Linecode=2c_.0225 Length=4.9432 Units=m
New Line.LINE711 Bus1=698 Bus2=712 phases=3 Linecode=35_SAC_PSC Length=4.553 Units=m
New Line.LINE842 Bus1=835 Bus2=843 phases=3 Linecode=2c_.0225 Length=2.3735 Units=m
New Line.LINE897 Bus1=891 Bus2=898 phases=3 Linecode=2c_.0225 Length=3.011 Units=m
New Line.LINE907 Bus1=902 Bus2=908 phases=3 Linecode=2c_.0225 Length=0.4842 Units=m
New Line.LINE908 Bus1=902 Bus2=909 phases=3 Linecode=2c_.0225 Length=0.4842 Units=m
New Line.LINE919 Bus1=914 Bus2=920 phases=3 Linecode=2c_.0225 Length=1.5746 Units=m
New Line.LINECmpd_0 Bus1=240 Bus2=405 phases=3 Linecode=35_SAC_XC Length=21.13875 Units=m
New Line.LINECmpd_1 Bus1=550 Bus2=891 phases=3 Linecode=35_SAC_PC Length=24.024411 Units=m
New Line.LINECmpd_2 Bus1=298 Bus2=791 phases=3 Linecode=35_SAC_XSC Length=26.958232 Units=m
New Line.LINECmpd_3 Bus1=891 Bus2=984 phases=3 Linecode=35_SAC_PC Length=9.889103 Units=m
New Line.LINECmpd_4 Bus1=554 Bus2=975 phases=3 Linecode=2c_.0225 Length=22.670891 Units=m
New Line.LINECmpd_5 Bus1=186 Bus2=398 phases=3 Linecode=4c_.1 Length=24.31577 Units=m
New Line.LINECmpd_6 Bus1=189 Bus2=314 phases=3 Linecode=25_SAC_PC Length=13.386541 Units=m
New Line.LINECmpd_7 Bus1=444 Bus2=698 phases=3 Linecode=35_SAC_PSC Length=8.948486 Units=m
New Line.LINECmpd_8 Bus1=280 Bus2=514 phases=3 Linecode=35_SAC_XSC Length=24.166251 Units=m
New Line.LINECmpd_9 Bus1=94 Bus2=151 phases=3 Linecode=4c_.2 Length=17.08806 Units=m
New Line.LINECmpd_10 Bus1=213 Bus2=550 phases=3 Linecode=4c_.1 Length=18.968626 Units=m
New Line.LINECmpd_11 Bus1=332 Bus2=590 phases=3 Linecode=2c_.0225 Length=10.231621 Units=m
New Line.LINECmpd_12 Bus1=398 Bus2=849 phases=3 Linecode=2c_.0225 Length=23.229518 Units=m
New Line.LINECmpd_13 Bus1=409 Bus2=835 phases=3 Linecode=2c_.0225 Length=21.369594 Units=m
New Line.LINECmpd_14 Bus1=914 Bus2=982 phases=3 Linecode=2c_.0225 Length=11.31229 Units=m
New Line.LINECmpd_15 Bus1=182 Bus2=348 phases=3 Linecode=3c_.03_UA Length=2.176841 Units=m
New Line.LINECmpd_16 Bus1=562 Bus2=990 phases=3 Linecode=2c_.0225 Length=30.015068 Units=m
New Line.LINECmpd_17 Bus1=27 Bus2=92 phases=3 Linecode=4c_.2 Length=40.560877 Units=m
New Line.LINECmpd_18 Bus1=27 Bus2=71 phases=3 Linecode=2c_.0225 Length=17.953091 Units=m
New Line.LINECmpd_19 Bus1=213 Bus2=332 phases=3 Linecode=4c_.1 Length=18.08961 Units=m
New Line.LINECmpd_20 Bus1=340 Bus2=444 phases=3 Linecode=3c_95_SAC_ASN Length=22.60096 Units=m
New Line.LINECmpd_21 Bus1=835 Bus2=938 phases=3 Linecode=2c_.0225 Length=12.235976 Units=m
New Line.LINECmpd_22 Bus1=409 Bus2=554 phases=3 Linecode=4c_.1 Length=27.21871 Units=m
New Line.LINECmpd_23 Bus1=1 Bus2=27 phases=3 Linecode=4c_.2 Length=47.061625 Units=m
New Line.LINECmpd_24 Bus1=554 Bus2=914 phases=3 Linecode=2c_.0225 Length=18.84934 Units=m
New Line.LINECmpd_25 Bus1=348 Bus2=614 phases=3 Linecode=3c_.03_UA Length=17.62519 Units=m
New Line.LINECmpd_26 Bus1=698 Bus2=780 phases=3 Linecode=35_SAC_PSC Length=9.5709 Units=m
New Line.LINECmpd_27 Bus1=498 Bus2=902 phases=3 Linecode=2c_.0225 Length=22.964397 Units=m
New Line.LINECmpd_28 Bus1=348 Bus2=747 phases=3 Linecode=3c_.03_UA Length=25.692133 Units=m
New Line.LINECmpd_29 Bus1=151 Bus2=182 phases=3 Linecode=4c_.1 Length=19.6919 Units=m
New Line.LINECmpd_30 Bus1=94 Bus2=239 phases=3 Linecode=2c_.0225 Length=36.646265 Units=m
New Line.LINECmpd_31 Bus1=444 Bus2=498 phases=3 Linecode=3c_95_SAC_ASN Length=19.04771 Units=m
New Line.LINECmpd_32 Bus1=590 Bus2=762 phases=3 Linecode=2c_.0225 Length=12.332518 Units=m
New Line.LINECmpd_33 Bus1=92 Bus2=189 phases=3 Linecode=25_SAC_PC Length=33.696208 Units=m
New Line.LINECmpd_34 Bus1=151 Bus2=213 phases=3 Linecode=4c_.1 Length=8.41525 Units=m
New Line.LINECmpd_35 Bus1=240 Bus2=280 phases=3 Linecode=4c_.1 Length=15.806124 Units=m
New Line.LINECmpd_36 Bus1=186 Bus2=240 phases=3 Linecode=4c_.1 Length=28.0847 Units=m
New Line.LINECmpd_37 Bus1=280 Bus2=298 phases=3 Linecode=4c_.1 Length=8.8659 Units=m
